ZINC02861338
                    3D
 Structure written by MMmdl.
 59 63  0  0  1  0            999 V2000
   -2.3043   -3.6233    0.3917 C   0  0  0  0  0  0
   -2.9421   -2.3707    0.1896 O   0  0  0  0  0  0
   -2.1545   -1.2445    0.0495 C   0  0  0  0  0  0
   -0.7363   -1.2753    0.0665 C   0  0  0  0  0  0
    0.0164   -0.0846   -0.0657 C   0  0  0  0  0  0
   -0.6561    1.1379   -0.2464 C   0  0  0  0  0  0
   -2.0608    1.1818   -0.2660 C   0  0  0  0  0  0
   -2.8163   -0.0064   -0.1271 C   0  0  0  0  0  0
   -4.2388   -0.0124   -0.1081 N   0  0  0  0  0  0
   -5.0946    0.8825   -0.6366 C   0  0  0  0  0  0
   -4.7681    1.8222   -1.3619 O   0  0  0  0  0  0
   -6.5500    0.5962   -0.3897 C   0  0  0  0  0  0
   -7.4363    0.6226   -1.4906 C   0  0  0  0  0  0
   -8.8098    0.3694   -1.3176 C   0  0  0  0  0  0
   -9.3167    0.0966   -0.0352 C   0  0  0  0  0  0
   -8.4496    0.0874    1.0723 C   0  0  0  0  0  0
   -7.0723    0.3414    0.9091 C   0  0  0  0  0  0
   -6.0871    0.3649    2.3336 Cl  0  0  0  0  0  0
    1.4370   -0.0493   -0.0632 N   0  0  0  0  0  0
    2.2977   -0.8874    0.5468 C   0  0  0  0  0  0
    1.9747   -1.8977    1.1718 O   0  0  0  0  0  0
    3.7490   -0.5380    0.3747 C   0  0  0  0  0  0
    4.7171   -1.5640    0.3038 C   0  0  0  0  0  0
    6.0829   -1.2512    0.1628 C   0  0  0  0  0  0
    6.5021    0.0956    0.0935 C   0  0  0  0  0  0
    5.5394    1.1241    0.1886 C   0  0  0  0  0  0
    4.1738    0.8102    0.3278 C   0  0  0  0  0  0
    7.9380    0.4246   -0.0428 C   0  0  0  0  0  0
    8.8451   -0.2259    0.7159 C   0  0  0  0  0  0
   10.2779    0.0047    0.5977 C   0  0  0  0  0  0
   11.2218   -0.6649    1.4019 C   0  0  0  0  0  0
   12.5947   -0.3959    1.2375 C   0  0  0  0  0  0
   13.0184    0.5401    0.2734 C   0  0  0  0  0  0
   12.0700    1.2066   -0.5276 C   0  0  0  0  0  0
   10.6953    0.9393   -0.3675 C   0  0  0  0  0  0
    9.7799    1.5902   -1.1639 O   0  0  0  0  0  0
    8.4237    1.3808   -1.0909 C   0  0  0  0  0  0
    7.6617    1.9589   -1.8645 O   0  0  0  0  0  0
   -3.0625   -4.3986    0.5007 H   0  0  0  0  0  0
   -1.7017   -3.6224    1.3010 H   0  0  0  0  0  0
   -1.6774   -3.8938   -0.4592 H   0  0  0  0  0  0
   -0.2198   -2.2152    0.1693 H   0  0  0  0  0  0
   -0.0955    2.0549   -0.3555 H   0  0  0  0  0  0
   -2.5385    2.1436   -0.3722 H   0  0  0  0  0  0
   -4.6587   -0.8147    0.3388 H   0  0  0  0  0  0
   -7.0634    0.8298   -2.4834 H   0  0  0  0  0  0
   -9.4738    0.3856   -2.1692 H   0  0  0  0  0  0
  -10.3706   -0.0967    0.1010 H   0  0  0  0  0  0
   -8.8478   -0.1068    2.0575 H   0  0  0  0  0  0
    1.8508    0.7641   -0.4955 H   0  0  0  0  0  0
    4.4181   -2.6013    0.3517 H   0  0  0  0  0  0
    6.8037   -2.0535    0.1011 H   0  0  0  0  0  0
    5.8429    2.1604    0.1616 H   0  0  0  0  0  0
    3.4599    1.6174    0.4056 H   0  0  0  0  0  0
    8.5259   -0.9461    1.4555 H   0  0  0  0  0  0
   10.8986   -1.3824    2.1420 H   0  0  0  0  0  0
   13.3225   -0.9070    1.8503 H   0  0  0  0  0  0
   14.0710    0.7463    0.1471 H   0  0  0  0  0  0
   12.3989    1.9221   -1.2671 H   0  0  0  0  0  0
  1  2  1  0  0  0
  1 39  1  0  0  0
  1 40  1  0  0  0
  1 41  1  0  0  0
  2  3  1  0  0  0
  3  8  2  0  0  0
  3  4  1  0  0  0
  4  5  2  0  0  0
  4 42  1  0  0  0
  5  6  1  0  0  0
  5 19  1  0  0  0
  6  7  2  0  0  0
  6 43  1  0  0  0
  7  8  1  0  0  0
  7 44  1  0  0  0
  8  9  1  0  0  0
  9 10  1  0  0  0
  9 45  1  0  0  0
 10 11  2  0  0  0
 10 12  1  0  0  0
 12 17  2  0  0  0
 12 13  1  0  0  0
 13 14  2  0  0  0
 13 46  1  0  0  0
 14 15  1  0  0  0
 14 47  1  0  0  0
 15 16  2  0  0  0
 15 48  1  0  0  0
 16 17  1  0  0  0
 16 49  1  0  0  0
 17 18  1  0  0  0
 19 20  1  0  0  0
 19 50  1  0  0  0
 20 21  2  0  0  0
 20 22  1  0  0  0
 22 27  2  0  0  0
 22 23  1  0  0  0
 23 24  2  0  0  0
 23 51  1  0  0  0
 24 25  1  0  0  0
 24 52  1  0  0  0
 25 26  2  0  0  0
 25 28  1  0  0  0
 26 27  1  0  0  0
 26 53  1  0  0  0
 27 54  1  0  0  0
 28 37  1  0  0  0
 28 29  2  0  0  0
 29 30  1  0  0  0
 29 55  1  0  0  0
 30 35  2  0  0  0
 30 31  1  0  0  0
 31 32  2  0  0  0
 31 56  1  0  0  0
 32 33  1  0  0  0
 32 57  1  0  0  0
 33 34  2  0  0  0
 33 58  1  0  0  0
 34 35  1  0  0  0
 34 59  1  0  0  0
 35 36  1  0  0  0
 36 37  1  0  0  0
 37 38  2  0  0  0
M  END
> <s_m_entry_id>
6

> <s_m_entry_name>
zinc_2861338.1

> <s_m_Source_Path>
E:\Dr. Babban\ref-ligprep_1

> <s_m_Source_File>
ref-ligprep_1-out.maegz

> <i_m_Source_File_Index>
1

> <i_lp_mmshare_version>
49013

> <s_epik_input>
Q2xjMVtjSF1bY0hdW2NIXVtjSF1jMUMoPU8pW05IXWMyW2NIXVtjSF1jKFtjSF1jMk9bQ0gzXSlbTkhdQyg9TyljM1tjSF1bY0hdYyhbY0hdW2NIXTMpLWMoW2NIXTQpYyg9TylvYyhjNDUpW2NIXVtjSF1bY0hdW2NIXTU=

> <s_epik_cmdline>
J2VwaWtfcHl0aG9uJywgJy1waCcsICc3LjAnLCAnLXRuJywgJzgnLCAnLW1hJywgJzIwMCcsICctaW1hZScsICc8aW5maWxlLm1hZT4nLCAnLW9tYWUnLCAnPG91dGZpbGUubWFlPic=

> <r_lp_tautomer_probability>
1

> <r_epik_Ionization_Penalty>
  0.0000

> <r_epik_Ionization_Penalty_Charging>
  0.0000

> <r_epik_Ionization_Penalty_Neutral>
  0.0000

> <r_epik_State_Penalty>
  0.0000

> <r_epik_Charging_Adjusted_Penalty>
0

> <i_epik_Tot_Q>
0

> <i_epik_Tot_abs_Q>
0

> <i_f3d_flags>
0

> <s_lp_Force_Field>
OPLS_2005

> <r_lp_Energy>
53.898101

> <b_lp_Chiralities_Consistent>
1

> <s_lp_Variant>
ZINC02861338-1

$$$$
